<?xml version="1.0" encoding="UTF-8"?>

<!-- generated on 8/17/2018 5:08:47 PM by Netedit Version 0.32.0
<?xml version="1.0" encoding="UTF-8"?>

<configuration xmlns:xsi="http://www.w3.org/2001/XMLSchema-instance" xsi:noNamespaceSchemaLocation="http://sumo.dlr.de/xsd/netconvertConfiguration.xsd">

    <input>
        <sumo-net-file value="D:\Jansen%20Lazaro\Documents\University\Industrial%20Project\SUMO\Practice\1\4way.net.xml"/>
    </input>

    <output>
        <output-file value="D:\Jansen%20Lazaro\Documents\University\Industrial%20Project\SUMO\Practice\1\4way.net.xml"/>
        <plain-output-prefix value="D:\Jansen%20Lazaro\Documents\University\Industrial%20Project\SUMO\Practice\1\4way"/>
    </output>

    <processing>
        <no-turnarounds value="true"/>
        <offset.disable-normalization value="true"/>
        <lefthand value="false"/>
        <junctions.corner-detail value="0"/>
        <rectangular-lane-cut value="false"/>
        <walkingareas value="false"/>
    </processing>

</configuration>
-->

<connections version="0.27" xmlns:xsi="http://www.w3.org/2001/XMLSchema-instance" xsi:noNamespaceSchemaLocation="http://sumo.dlr.de/xsd/connections_file.xsd">
    <connection from="-gneE0"/>

    <connection from="-gneE1" to="gneE4" fromLane="0" toLane="0"/>
    <connection from="-gneE1" to="-gneE0" fromLane="0" toLane="1"/>
    <connection from="-gneE1" to="-gneE3" fromLane="0" toLane="0"/>
    <connection from="-gneE1" to="gneE4" fromLane="1" toLane="1"/>
    <connection from="-gneE1" to="-gneE0" fromLane="1" toLane="0"/>
    <connection from="-gneE1" to="-gneE3" fromLane="1" toLane="1"/>

    <connection from="-gneE3"/>

    <connection from="-gneE4" to="-gneE0" fromLane="0" toLane="0"/>
    <connection from="-gneE4" to="-gneE3" fromLane="0" toLane="0"/>
    <connection from="-gneE4" to="gneE1" fromLane="0" toLane="0"/>
    <connection from="-gneE4" to="-gneE0" fromLane="1" toLane="1"/>
    <connection from="-gneE4" to="-gneE3" fromLane="1" toLane="1"/>
    <connection from="-gneE4" to="gneE1" fromLane="1" toLane="1"/>

    <connection from="gneE0" to="-gneE3" fromLane="0" toLane="0"/>
    <connection from="gneE0" to="gneE1" fromLane="0" toLane="0"/>
    <connection from="gneE0" to="gneE4" fromLane="1" toLane="0"/>

    <connection from="gneE1"/>

    <connection from="gneE3" to="gneE1" fromLane="0" toLane="0"/>
    <connection from="gneE3" to="gneE4" fromLane="0" toLane="0"/>
    <connection from="gneE3" to="-gneE0" fromLane="0" toLane="1"/>
    <connection from="gneE3" to="gneE1" fromLane="1" toLane="1"/>
    <connection from="gneE3" to="gneE4" fromLane="1" toLane="1"/>
    <connection from="gneE3" to="-gneE0" fromLane="1" toLane="0"/>

    <connection from="gneE4"/>

</connections>
