<additional>
	<vType color="1,1,1" accel="3.0" decel="6.0" vClass="passenger" id="CarA" length="5.0" minGap="2.5" maxSpeed="50.0" sigma="0.5" />
	<vType color="0,1,0" accel="2.0" decel="6.0" vClass="bus" id="CarB" length="7.5" minGap="2.5" maxSpeed="50.0" sigma="0.5" />
	<vType color="0,0,1" accel="1.0" decel="5.0" vClass="passenger" id="CarC" length="5.0" minGap="2.5" maxSpeed="40.0" sigma="0.5" />
	<vType color="1,0,0" accel="1.0" decel="5.0" vClass="passenger" id="CarD" length="7.5" minGap="2.5" maxSpeed="30.0" sigma="0.5" />
	<vTypeDistribution id="typedist1" vTypes="CarA CarB CarC CarD "/>
</additional>