<?xml version="1.0" encoding="UTF-8"?>

<!-- generated on 8/17/2018 5:08:47 PM by Netedit Version 0.32.0
<?xml version="1.0" encoding="UTF-8"?>

<configuration xmlns:xsi="http://www.w3.org/2001/XMLSchema-instance" xsi:noNamespaceSchemaLocation="http://sumo.dlr.de/xsd/netconvertConfiguration.xsd">

    <input>
        <sumo-net-file value="D:\Jansen%20Lazaro\Documents\University\Industrial%20Project\SUMO\Practice\1\4way.net.xml"/>
    </input>

    <output>
        <output-file value="D:\Jansen%20Lazaro\Documents\University\Industrial%20Project\SUMO\Practice\1\4way.net.xml"/>
        <plain-output-prefix value="D:\Jansen%20Lazaro\Documents\University\Industrial%20Project\SUMO\Practice\1\4way"/>
    </output>

    <processing>
        <no-turnarounds value="true"/>
        <offset.disable-normalization value="true"/>
        <lefthand value="false"/>
        <junctions.corner-detail value="0"/>
        <rectangular-lane-cut value="false"/>
        <walkingareas value="false"/>
    </processing>

</configuration>
-->

<edges version="0.27" xmlns:xsi="http://www.w3.org/2001/XMLSchema-instance" xsi:noNamespaceSchemaLocation="http://sumo.dlr.de/xsd/edges_file.xsd">
    <edge id="-gneE0" from="gneJ1" to="gneJ0" priority="1" numLanes="2" speed="13.89"/>
    <edge id="-gneE1" from="gneJ2" to="gneJ1" priority="1" numLanes="2" speed="13.89"/>
    <edge id="-gneE3" from="gneJ1" to="gneJ5" priority="1" numLanes="2" speed="13.89"/>
    <edge id="-gneE4" from="gneJ6" to="gneJ1" priority="1" numLanes="2" speed="13.89"/>
    <edge id="gneE0" from="gneJ0" to="gneJ1" priority="1" numLanes="2" speed="13.89"/>
    <edge id="gneE1" from="gneJ1" to="gneJ2" priority="1" numLanes="2" speed="13.89"/>
    <edge id="gneE3" from="gneJ5" to="gneJ1" priority="1" numLanes="2" speed="13.89"/>
    <edge id="gneE4" from="gneJ1" to="gneJ6" priority="1" numLanes="2" speed="13.89"/>
</edges>
