<?xml version="1.0" encoding="UTF-8"?>

<!-- generated on 8/17/2018 5:08:47 PM by Netedit Version 0.32.0
<?xml version="1.0" encoding="UTF-8"?>

<configuration xmlns:xsi="http://www.w3.org/2001/XMLSchema-instance" xsi:noNamespaceSchemaLocation="http://sumo.dlr.de/xsd/netconvertConfiguration.xsd">

    <input>
        <sumo-net-file value="D:\Jansen%20Lazaro\Documents\University\Industrial%20Project\SUMO\Practice\1\4way.net.xml"/>
    </input>

    <output>
        <output-file value="D:\Jansen%20Lazaro\Documents\University\Industrial%20Project\SUMO\Practice\1\4way.net.xml"/>
        <plain-output-prefix value="D:\Jansen%20Lazaro\Documents\University\Industrial%20Project\SUMO\Practice\1\4way"/>
    </output>

    <processing>
        <no-turnarounds value="true"/>
        <offset.disable-normalization value="true"/>
        <lefthand value="false"/>
        <junctions.corner-detail value="0"/>
        <rectangular-lane-cut value="false"/>
        <walkingareas value="false"/>
    </processing>

</configuration>
-->

<nodes version="0.27" xmlns:xsi="http://www.w3.org/2001/XMLSchema-instance" xsi:noNamespaceSchemaLocation="http://sumo.dlr.de/xsd/nodes_file.xsd">
    <location netOffset="100.00,200.00" convBoundary="0.00,0.00,400.00,400.00" origBoundary="-10000000000.00,-10000000000.00,10000000000.00,10000000000.00" projParameter="!"/>

    <node id="gneJ0" x="0.00" y="200.00" type="dead_end"/>
    <node id="gneJ1" x="200.00" y="200.00" type="priority"/>
    <node id="gneJ2" x="400.00" y="200.00" type="dead_end"/>
    <node id="gneJ5" x="200.00" y="0.00" type="dead_end"/>
    <node id="gneJ6" x="200.00" y="400.00" type="dead_end"/>
</nodes>
